data/public_benchmarks/arpae_go/extracted/Challenge_1_Original_Dataset_2_Scenarios/Original_Dataset_Real-Time_Edition_2/Network_03R-020/scenario_6/case.raw
0,   100.00, 33, 0, 1, 60.00     / PSS(R)E-33.7    FRI, AUG 24 2018  11:30
 GO Competition Network Model 03
 2015 S             REAL_TIME SEQUENCE RUN AT 2015/07/22 11.
     1,'A1          ', 115.0000,1,   1,   1,   1,1.00459,  -9.9376,1.05000,0.95000,1.10000,0.90000
     2,'A2          ', 115.0000,1,   1,   1,   1,1.01199, -11.4670,1.05000,0.95000,1.10000,0.90000
     3,'A3          ',  35.0000,1,   1,   1,   1,0.99993, -10.5589,1.05000,0.95000,1.10000,0.90000
     4,'A4          ', 115.0000,1,   1,   1,   1,1.01397,  -8.9626,1.05000,0.95000,1.10000,0.90000
     5,'A5          ',  13.0000,1,   1,   1,   1,1.01163, -11.9139,1.05000,0.95000,1.10000,0.90000
     6,'A6          ',  14.0000,2,   1,   1,   1,1.00020,  -9.0577,1.05000,0.95000,1.10000,0.90000
     7,'A7          ', 115.0000,1,   1,   1,   1,1.00232, -10.3274,1.05000,0.95000,1.10000,0.90000
     8,'A8          ',  13.0000,1,   1,   1,   1,1.01233, -11.4106,1.05000,0.95000,1.10000,0.90000
     9,'A9          ',  35.0000,1,   1,   1,   1,1.00120, -10.3990,1.05000,0.95000,1.10000,0.90000
    10,'A10         ', 115.0000,1,   1,   1,   1,1.01102, -11.8655,1.05000,0.95000,1.10000,0.90000
    11,'A11         ', 115.0000,1,   1,   1,   1,1.00870, -12.3693,1.05000,0.95000,1.10000,0.90000
    12,'A12         ',  35.0000,1,   1,   1,   1,1.00746,  -9.6910,1.05000,0.95000,1.10000,0.90000
    13,'A13         ',  13.0000,1,   1,   1,   1,1.01688, -11.0816,1.05000,0.95000,1.10000,0.90000
    15,'A15         ',  35.0000,1,   1,   1,   1,1.00892, -10.6237,1.05000,0.95000,1.10000,0.90000
    16,'A16         ', 115.0000,1,   1,   1,   1,1.01660,  -8.8262,1.05000,0.95000,1.10000,0.90000
    17,'A17         ', 115.0000,1,   1,   1,   1,1.01670,  -8.9140,1.05000,0.95000,1.10000,0.90000
    18,'A18         ', 230.0000,1,   1,   1,   1,1.01006,  -7.6455,1.05000,0.95000,1.10000,0.90000
    19,'A19         ', 230.0000,1,   1,   1,   1,1.01016,  -7.5967,1.05000,0.95000,1.10000,0.90000
    20,'A20         ',  13.0000,1,   1,   1,   1,1.01399,  -9.0226,1.05000,0.95000,1.10000,0.90000
    21,'A21         ', 115.0000,1,   1,   1,   1,1.00454, -14.5984,1.05000,0.95000,1.10000,0.90000
    22,'A22         ', 115.0000,1,   1,   1,   1,1.00236,  -9.4883,1.05000,0.95000,1.10000,0.90000
    23,'A23         ', 115.0000,2,   1,   1,   1,1.01000,  -5.3841,1.05000,0.95000,1.10000,0.90000
    24,'A24         ', 115.0000,1,   1,   1,   1,0.99267, -11.0987,1.05000,0.95000,1.10000,0.90000
    25,'A25         ',  14.0000,2,   1,   1,   1,1.00020,  -9.0577,1.05000,0.95000,1.10000,0.90000
    27,'A27         ', 115.0000,1,   1,   1,   1,1.01081, -11.8527,1.05000,0.95000,1.10000,0.90000
    28,'A28         ',  35.0000,1,   1,   1,   1,0.99817, -11.0673,1.05000,0.95000,1.10000,0.90000
    30,'A30         ', 115.0000,1,   1,   1,   1,0.99602, -10.9144,1.05000,0.95000,1.10000,0.90000
    31,'A31         ', 230.0000,2,   1,   1,   1,1.00990,  -7.6443,1.05000,0.95000,1.10000,0.90000
    32,'A32         ', 115.0000,1,   1,   1,   1,1.01151, -11.5997,1.05000,0.95000,1.10000,0.90000
    33,'A33         ', 230.0000,2,   1,   1,   1,1.00907,  -7.8933,1.05000,0.95000,1.10000,0.90000
    34,'A34         ',  35.0000,1,   1,   1,   1,1.00375,  -8.3708,1.05000,0.95000,1.10000,0.90000
    35,'A35         ', 230.0000,2,   1,   1,   1,1.01016,  -7.5967,1.05000,0.95000,1.10000,0.90000
    36,'A36         ', 230.0000,1,   1,   1,   1,1.00907,  -7.8933,1.05000,0.95000,1.10000,0.90000
    37,'A37         ', 230.0000,1,   1,   1,   1,1.01159,  -9.9815,1.05000,0.95000,1.10000,0.90000
    38,'A38         ', 230.0000,1,   1,   1,   1,1.00917,  -7.7500,1.05000,0.95000,1.10000,0.90000
    39,'A39         ',  35.0000,1,   1,   1,   1,0.99237,  -7.1058,1.05000,0.95000,1.10000,0.90000
    40,'A40         ', 115.0000,1,   1,   1,   1,1.01461,  -8.1285,1.05000,0.95000,1.10000,0.90000
    41,'A41         ', 230.0000,1,   1,   1,   1,1.00543, -10.7226,1.05000,0.95000,1.10000,0.90000
    43,'A43         ', 115.0000,2,   1,   1,   1,1.01310,  -8.9423,1.05000,0.95000,1.10000,0.90000
    44,'A44         ', 115.0000,1,   1,   1,   1,1.00920,  -5.8152,1.05000,0.95000,1.10000,0.90000
    45,'A45         ', 230.0000,2,   1,   1,   1,1.00907,  -7.8933,1.05000,0.95000,1.10000,0.90000
    46,'A46         ', 230.0000,2,   1,   1,   1,1.00480, -10.1617,1.05000,0.95000,1.10000,0.90000
    47,'A47         ', 115.0000,2,   1,   1,   1,1.01310,  -7.5903,1.05000,0.95000,1.10000,0.90000
    49,'A49         ',  35.0000,1,   1,   1,   1,1.00375,  -8.3708,1.05000,0.95000,1.10000,0.90000
    50,'A50         ', 115.0000,1,   1,   1,   1,1.01238, -11.4284,1.05000,0.95000,1.10000,0.90000
    51,'A51         ',  13.0000,1,   1,   1,   1,0.99201, -11.1370,1.05000,0.95000,1.10000,0.90000
    52,'A52         ', 230.0000,2,   1,   1,   1,1.00510, -10.7003,1.05000,0.95000,1.10000,0.90000
    53,'A53         ', 115.0000,1,   1,   1,   1,1.01536, -12.4269,1.05000,0.95000,1.10000,0.90000
    54,'A54         ',  35.0000,1,   1,   1,   1,0.99927, -12.4833,1.05000,0.95000,1.10000,0.90000
    55,'A55         ', 230.0000,2,   1,   1,   1,1.01080,  -9.0577,1.05000,0.95000,1.10000,0.90000
    56,'A56         ',  35.0000,1,   1,   1,   1,1.00844,  -9.6004,1.05000,0.95000,1.10000,0.90000
    57,'A57         ', 115.0000,1,   1,   1,   1,0.99492, -15.3824,1.05000,0.95000,1.10000,0.90000
    58,'A58         ', 115.0000,1,   1,   1,   1,1.02205, -11.7420,1.05000,0.95000,1.10000,0.90000
    59,'A59         ',  35.0000,2,   1,   1,   1,1.03408,  -5.9322,1.05000,0.95000,1.10000,0.90000
    60,'A60         ', 115.0000,1,   1,   1,   1,1.00183, -10.3332,1.05000,0.95000,1.10000,0.90000
    61,'A61         ',  13.0000,1,   1,   1,   1,1.01075, -11.8696,1.05000,0.95000,1.10000,0.90000
    62,'A62         ', 115.0000,1,   1,   1,   1,1.01619, -12.3524,1.05000,0.95000,1.10000,0.90000
    63,'A63         ', 230.0000,1,   1,   1,   1,1.00769, -10.2118,1.05000,0.95000,1.10000,0.90000
    64,'A64         ',  35.0000,1,   1,   1,   1,1.00919,  -5.4089,1.05000,0.95000,1.10000,0.90000
    65,'A65         ',  14.0000,2,   1,   1,   1,1.01744,  -8.7685,1.05000,0.95000,1.10000,0.90000
    66,'A66         ', 230.0000,1,   1,   1,   1,1.01006,  -7.6455,1.05000,0.95000,1.10000,0.90000
    67,'A67         ', 115.0000,1,   1,   1,   1,1.00717,  -8.3036,1.05000,0.95000,1.10000,0.90000
    68,'A68         ', 115.0000,1,   1,   1,   1,1.01016, -13.5648,1.05000,0.95000,1.10000,0.90000
    69,'A69         ', 230.0000,1,   1,   1,   1,1.01019,  -7.5884,1.05000,0.95000,1.10000,0.90000
    70,'A70         ',  35.0000,1,   1,   1,   1,1.00085,  -8.3124,1.05000,0.95000,1.10000,0.90000
    71,'A71         ', 115.0000,2,   1,   1,   1,1.01590,  -7.1172,1.05000,0.95000,1.10000,0.90000
    72,'A72         ', 115.0000,1,   1,   1,   1,1.01081, -11.8018,1.05000,0.95000,1.10000,0.90000
    73,'A73         ', 115.0000,1,   1,   1,   1,1.00292, -10.2984,1.05000,0.95000,1.10000,0.90000
    74,'A74         ', 115.0000,1,   1,   1,   1,1.01245, -11.3941,1.05000,0.95000,1.10000,0.90000
    75,'A75         ',  13.0000,1,   1,   1,   1,1.01452,  -9.0869,1.05000,0.95000,1.10000,0.90000
    76,'A76         ', 115.0000,1,   1,   1,   1,1.01710, -12.2623,1.05000,0.95000,1.10000,0.90000
    77,'A77         ',  35.0000,1,   1,   1,   1,0.98871, -11.0593,1.05000,0.95000,1.10000,0.90000
    78,'A78         ',  35.0000,1,   1,   1,   1,0.99550, -10.9731,1.05000,0.95000,1.10000,0.90000
    79,'A79         ', 230.0000,1,   1,   1,   1,1.01155, -10.1263,1.05000,0.95000,1.10000,0.90000
    80,'A80         ',  14.0000,2,   1,   1,   1,1.01647,  -8.8310,1.05000,0.95000,1.10000,0.90000
    81,'A81         ', 115.0000,1,   1,   1,   1,1.01717, -11.0489,1.05000,0.95000,1.10000,0.90000
    82,'A82         ', 115.0000,1,   1,   1,   1,1.01534, -12.4298,1.05000,0.95000,1.10000,0.90000
    83,'A83         ', 115.0000,1,   1,   1,   1,1.01143, -13.4157,1.05000,0.95000,1.10000,0.90000
    84,'A84         ', 115.0000,1,   1,   1,   1,1.00972, -13.6096,1.05000,0.95000,1.10000,0.90000
    85,'A85         ', 115.0000,1,   1,   1,   1,0.99487, -15.3882,1.05000,0.95000,1.10000,0.90000
    86,'A86         ', 230.0000,2,   1,   1,   1,1.01070,  -6.8882,1.05000,0.95000,1.10000,0.90000
    87,'A87         ', 230.0000,2,   1,   1,   1,1.00554, -10.7277,1.05000,0.95000,1.10000,0.90000
    88,'A88         ',  35.0000,1,   1,   1,   1,1.00692,  -8.7333,1.05000,0.95000,1.10000,0.90000
    89,'A89         ',  35.0000,1,   1,   1,   1,0.99923,  -7.9371,1.05000,0.95000,1.10000,0.90000
    90,'A90         ', 230.0000,2,   1,   1,   1,1.00780, -10.1434,1.05000,0.95000,1.10000,0.90000
    91,'A91         ', 115.0000,1,   1,   1,   1,1.01188, -13.3402,1.05000,0.95000,1.10000,0.90000
    92,'A92         ', 115.0000,1,   1,   1,   1,1.00958, -12.3397,1.05000,0.95000,1.10000,0.90000
    93,'A93         ', 115.0000,2,   1,   1,   1,1.01610,  -8.8715,1.05000,0.95000,1.10000,0.90000
    94,'A94         ', 115.0000,1,   1,   1,   1,0.99331, -11.0596,1.05000,0.95000,1.10000,0.90000
    95,'B95         ', 345.0000,1,   1,   2,   1,0.99531, -14.9616,1.05000,0.95000,1.10000,0.90000
    96,'B96         ', 345.0000,1,   1,   2,   1,0.99527, -14.9660,1.05000,0.95000,1.10000,0.90000
    97,'B97         ', 345.0000,1,   1,   2,   1,0.99734, -14.9696,1.05000,0.95000,1.10000,0.90000
    98,'B98         ', 345.0000,2,   1,   2,   1,0.99740, -14.9732,1.05000,0.95000,1.10000,0.90000
    99,'B99         ', 345.0000,2,   1,   2,   1,0.99855, -14.5410,1.05000,0.95000,1.10000,0.90000
   100,'B100        ', 345.0000,2,   1,   2,   1,0.99856, -14.5554,1.05000,0.95000,1.10000,0.90000
   101,'B101        ', 345.0000,1,   1,   2,   1,1.01059, -15.9447,1.05000,0.95000,1.10000,0.90000
   102,'B102        ', 345.0000,1,   1,   2,   1,1.01263, -15.7852,1.05000,0.95000,1.10000,0.90000
   103,'B103        ', 138.0000,1,   1,   2,   1,1.02467, -12.5669,1.05000,0.95000,1.10000,0.90000
   104,'B104        ', 138.0000,1,   1,   2,   1,1.01395,  11.7542,1.05000,0.95000,1.10000,0.90000
   105,'B105        ', 138.0000,1,   1,   2,   1,1.01411,  11.5674,1.05000,0.95000,1.10000,0.90000
   106,'B106        ', 138.0000,1,   1,   2,   1,1.01895,  -4.2190,1.05000,0.95000,1.10000,0.90000
   107,'B107        ', 138.0000,1,   1,   2,   1,1.01897,  -4.2217,1.05000,0.95000,1.10000,0.90000
   108,'B108        ', 138.0000,1,   1,   2,   1,1.02745,  15.4575,1.05000,0.95000,1.10000,0.90000
   109,'B109        ', 138.0000,1,   1,   2,   1,1.01279, -13.8845,1.05000,0.95000,1.10000,0.90000
   110,'B110        ', 138.0000,1,   1,   2,   1,1.01902,  -4.1957,1.05000,0.95000,1.10000,0.90000
   111,'B111        ', 138.0000,1,   1,   2,   1,1.01902,  -4.1981,1.05000,0.95000,1.10000,0.90000
   112,'B112        ', 138.0000,1,   1,   2,   1,1.02687,  -5.4297,1.05000,0.95000,1.10000,0.90000
   113,'B113        ', 138.0000,1,   1,   2,   1,1.02687,  -5.4297,1.05000,0.95000,1.10000,0.90000
   114,'B114        ', 138.0000,1,   1,   2,   1,1.02697,  -5.4222,1.05000,0.95000,1.10000,0.90000
   115,'B115        ', 138.0000,1,   1,   2,   1,1.01270, -14.2945,1.05000,0.95000,1.10000,0.90000
   116,'B116        ', 138.0000,2,   1,   2,   1,1.01939, -12.2997,1.05000,0.95000,1.10000,0.90000
   117,'B117        ', 138.0000,2,   1,   2,   1,1.01957, -12.3448,1.05000,0.95000,1.10000,0.90000
   118,'B118        ', 138.0000,1,   1,   2,   1,1.01939, -13.0843,1.05000,0.95000,1.10000,0.90000
   119,'B119        ', 138.0000,1,   1,   2,   1,1.01951, -13.0757,1.05000,0.95000,1.10000,0.90000
   120,'B120        ', 138.0000,1,   1,   2,   1,1.01236, -14.0464,1.05000,0.95000,1.10000,0.90000
   121,'B121        ', 138.0000,2,   1,   2,   1,1.01548, -13.5360,1.05000,0.95000,1.10000,0.90000
   122,'B122        ', 138.0000,1,   1,   2,   1,1.01551, -13.5329,1.05000,0.95000,1.10000,0.90000
   123,'B123        ', 138.0000,1,   1,   2,   1,1.01551, -13.5329,1.05000,0.95000,1.10000,0.90000
   124,'B124        ', 138.0000,1,   1,   2,   1,1.01548, -13.5360,1.05000,0.95000,1.10000,0.90000
   125,'B125        ', 138.0000,1,   1,   2,   1,1.01284, -13.8805,1.05000,0.95000,1.10000,0.90000
   126,'B126        ', 138.0000,1,   1,   2,   1,1.01270, -14.2946,1.05000,0.95000,1.10000,0.90000
   127,'B127        ', 138.0000,1,   1,   2,   1,1.01682,  -3.8262,1.05000,0.95000,1.10000,0.90000
   128,'B128        ', 138.0000,1,   1,   2,   1,1.01660,  -3.8089,1.05000,0.95000,1.10000,0.90000
   129,'B129        ', 138.0000,1,   1,   2,   1,1.00326,  -2.2829,1.05000,0.95000,1.10000,0.90000
   130,'B130        ', 138.0000,1,   1,   2,   1,1.00341,  -2.2807,1.05000,0.95000,1.10000,0.90000
   131,'B131        ', 138.0000,2,   1,   2,   1,1.02673,  -5.4430,1.05000,0.95000,1.10000,0.90000
   132,'B132        ', 138.0000,1,   1,   2,   1,1.01926, -12.3095,1.05000,0.95000,1.10000,0.90000
   133,'B133        ', 138.0000,2,   1,   2,   1,1.01702, -14.7066,1.05000,0.95000,1.10000,0.90000
   134,'B134        ', 138.0000,2,   1,   2,   1,0.99275, -16.6161,1.05000,0.95000,1.10000,0.90000
   135,'B135        ', 138.0000,1,   1,   2,   1,1.01248, -13.9084,1.05000,0.95000,1.10000,0.90000
   136,'B136        ', 138.0000,1,   1,   2,   1,1.01545, -13.5386,1.05000,0.95000,1.10000,0.90000
   137,'B137        ', 138.0000,1,   1,   2,   1,1.00437,  -4.8066,1.05000,0.95000,1.10000,0.90000
   138,'B138        ', 138.0000,1,   1,   2,   1,1.00339,   4.5465,1.05000,0.95000,1.10000,0.90000
   139,'B139        ', 138.0000,1,   1,   2,   1,1.00340,   4.5465,1.05000,0.95000,1.10000,0.90000
   140,'B140        ', 138.0000,1,   1,   2,   1,1.01932,  -4.1488,1.05000,0.95000,1.10000,0.90000
   141,'B141        ', 138.0000,1,   1,   2,   1,1.02022,  -4.0612,1.05000,0.95000,1.10000,0.90000
   142,'B142        ', 138.0000,1,   1,   2,   1,1.01974, -13.0771,1.05000,0.95000,1.10000,0.90000
   143,'B143        ', 138.0000,1,   1,   2,   1,1.01986, -13.0916,1.05000,0.95000,1.10000,0.90000
   144,'B144        ', 138.0000,1,   1,   2,   1,1.01284, -13.8805,1.05000,0.95000,1.10000,0.90000
   145,'B145        ', 138.0000,1,   1,   2,   1,1.01981, -12.4234,1.05000,0.95000,1.10000,0.90000
   146,'B146        ', 138.0000,1,   1,   2,   1,1.01663,  -4.7210,1.05000,0.95000,1.10000,0.90000
   147,'B147        ', 138.0000,1,   1,   2,   1,1.01662,  -4.7337,1.05000,0.95000,1.10000,0.90000
   148,'B148        ', 138.0000,1,   1,   2,   1,1.01613, -15.0545,1.05000,0.95000,1.10000,0.90000
   149,'B149        ', 138.0000,1,   1,   2,   1,1.01653, -15.0356,1.05000,0.95000,1.10000,0.90000
   150,'B150        ', 138.0000,1,   1,   2,   1,1.01262, -14.2984,1.05000,0.95000,1.10000,0.90000
   151,'B151        ', 138.0000,2,   1,   2,   1,1.00489,  -0.9521,1.05000,0.95000,1.10000,0.90000
   152,'B152        ', 138.0000,2,   1,   2,   1,1.02455, -12.5650,1.05000,0.95000,1.10000,0.90000
   153,'B153        ', 138.0000,1,   1,   2,   1,1.01913, -12.6713,1.05000,0.95000,1.10000,0.90000
   154,'B154        ', 138.0000,1,   1,   2,   1,1.01922, -12.6889,1.05000,0.95000,1.10000,0.90000
   155,'B155        ', 138.0000,1,   1,   2,   1,1.01928,  -4.2399,1.05000,0.95000,1.10000,0.90000
   156,'B156        ', 138.0000,2,   1,   2,   1,1.01935,  -4.2240,1.05000,0.95000,1.10000,0.90000
   157,'B157        ', 138.0000,1,   1,   2,   1,1.02428,  -4.4045,1.05000,0.95000,1.10000,0.90000
   158,'B158        ', 138.0000,1,   1,   2,   1,1.02438,  -4.3987,1.05000,0.95000,1.10000,0.90000
   159,'B159        ', 138.0000,2,   1,   2,   1,1.01930,  -4.5983,1.05000,0.95000,1.10000,0.90000
   160,'B160        ', 138.0000,1,   1,   2,   1,1.01924,  -4.5969,1.05000,0.95000,1.10000,0.90000
   161,'B161        ', 138.0000,1,   1,   2,   1,1.01713, -13.3253,1.05000,0.95000,1.10000,0.90000
   162,'B162        ', 138.0000,1,   1,   2,   1,1.01701, -13.3476,1.05000,0.95000,1.10000,0.90000
   163,'B163        ', 138.0000,1,   1,   2,   1,1.01928,  -4.3495,1.05000,0.95000,1.10000,0.90000
   164,'B164        ', 138.0000,1,   1,   2,   1,1.01925,  -4.3444,1.05000,0.95000,1.10000,0.90000
   165,'B165        ', 138.0000,1,   1,   2,   1,1.01922,  -4.2447,1.05000,0.95000,1.10000,0.90000
   166,'B166        ', 138.0000,1,   1,   2,   1,1.01930,  -4.2279,1.05000,0.95000,1.10000,0.90000
   167,'B167        ', 138.0000,1,   1,   2,   1,1.01815, -13.0910,1.05000,0.95000,1.10000,0.90000
   168,'B168        ', 138.0000,1,   1,   2,   1,1.01805, -13.0569,1.05000,0.95000,1.10000,0.90000
   169,'B169        ', 138.0000,1,   1,   2,   1,1.02271,  14.3925,1.05000,0.95000,1.10000,0.90000
   170,'B170        ', 138.0000,1,   1,   2,   1,1.02280,  14.3992,1.05000,0.95000,1.10000,0.90000
   171,'B171        ', 138.0000,1,   1,   2,   1,1.01931,  -4.3876,1.05000,0.95000,1.10000,0.90000
   172,'B172        ', 138.0000,1,   1,   2,   1,1.01931,  -4.3851,1.05000,0.95000,1.10000,0.90000
   173,'B173        ', 138.0000,1,   1,   2,   1,1.00248,  -3.3112,1.05000,0.95000,1.10000,0.90000
   174,'B174        ', 138.0000,1,   1,   2,   1,1.00316,  -3.2623,1.05000,0.95000,1.10000,0.90000
   175,'B175        ', 138.0000,1,   1,   2,   1,1.01409, -14.6997,1.05000,0.95000,1.10000,0.90000
   176,'B176        ', 138.0000,1,   1,   2,   1,1.01421, -14.7134,1.05000,0.95000,1.10000,0.90000
   177,'B177        ', 138.0000,1,   1,   2,   1,1.01258, -14.2199,1.05000,0.95000,1.10000,0.90000
   178,'B178        ', 138.0000,1,   1,   2,   1,1.01258, -14.2198,1.05000,0.95000,1.10000,0.90000
   179,'B179        ', 138.0000,1,   1,   2,   1,1.00483,   6.5852,1.05000,0.95000,1.10000,0.90000
   180,'B180        ', 138.0000,1,   1,   2,   1,1.00438,   6.7706,1.05000,0.95000,1.10000,0.90000
   181,'B181        ', 138.0000,1,   1,   2,   1,1.01158,  -3.0403,1.05000,0.95000,1.10000,0.90000
   182,'B182        ', 138.0000,1,   1,   2,   1,1.01177,  -3.0597,1.05000,0.95000,1.10000,0.90000
   183,'B183        ', 138.0000,1,   1,   2,   1,1.00770,  -2.0046,1.05000,0.95000,1.10000,0.90000
   184,'B184        ', 138.0000,1,   1,   2,   1,1.02070, -12.4135,1.05000,0.95000,1.10000,0.90000
   185,'B185        ', 138.0000,1,   1,   2,   1,1.02074, -12.4476,1.05000,0.95000,1.10000,0.90000
   186,'B186        ', 138.0000,1,   1,   2,   1,1.02093, -12.4024,1.05000,0.95000,1.10000,0.90000
   187,'B187        ', 138.0000,1,   1,   2,   1,1.02101, -12.4349,1.05000,0.95000,1.10000,0.90000
   188,'B188        ', 138.0000,1,   1,   2,   1,1.00604,  -1.4222,1.05000,0.95000,1.10000,0.90000
   189,'B189        ', 138.0000,1,   1,   2,   1,1.00587,  -1.4005,1.05000,0.95000,1.10000,0.90000
   190,'B190        ', 138.0000,2,   1,   2,   1,1.03300,  -4.9075,1.05000,0.95000,1.10000,0.90000
   191,'B191        ', 138.0000,1,   1,   2,   1,1.01274, -13.9593,1.05000,0.95000,1.10000,0.90000
   192,'B192        ', 138.0000,1,   1,   2,   1,1.01277, -13.9569,1.05000,0.95000,1.10000,0.90000
   193,'B193        ', 138.0000,1,   1,   2,   1,1.01259, -13.8994,1.05000,0.95000,1.10000,0.90000
   194,'B194        ', 138.0000,1,   1,   2,   1,1.02306,  -9.9960,1.05000,0.95000,1.10000,0.90000
   195,'B195        ', 138.0000,1,   1,   2,   1,1.02319,  -9.9853,1.05000,0.95000,1.10000,0.90000
   196,'B196        ', 138.0000,1,   1,   2,   1,1.03301,  -4.9077,1.05000,0.95000,1.10000,0.90000
   197,'B197        ', 138.0000,1,   1,   2,   1,1.01551, -13.5329,1.05000,0.95000,1.10000,0.90000
   198,'B198        ', 138.0000,1,   1,   2,   1,1.01236, -14.1092,1.05000,0.95000,1.10000,0.90000
   199,'B199        ', 138.0000,1,   1,   2,   1,1.01236, -14.1090,1.05000,0.95000,1.10000,0.90000
   200,'B200        ', 138.0000,1,   1,   2,   1,1.01907,  -4.2450,1.05000,0.95000,1.10000,0.90000
   201,'B201        ', 138.0000,1,   1,   2,   1,1.01910,  -4.2452,1.05000,0.95000,1.10000,0.90000
   202,'B202        ', 138.0000,1,   1,   2,   1,1.01900,  -4.2325,1.05000,0.95000,1.10000,0.90000
   203,'B203        ', 138.0000,1,   1,   2,   1,1.01898,  -4.2298,1.05000,0.95000,1.10000,0.90000
   204,'B204        ', 138.0000,1,   1,   2,   1,1.01911,  -4.2190,1.05000,0.95000,1.10000,0.90000
...
0 / END OF BUS DATA, BEGIN LOAD DATA
     1,'1 ',1,   1,  11,    11.875,     4.999,     0.000,     0.000,     0.000,     0.000,   1,1,0
     2,'1 ',1,   1,  11,     6.845,     1.522,     0.000,     0.000,     0.000,     0.000,   1,1,0
     2,'2 ',1,   1,  11,     0.085,     0.394,     0.000,     0.000,     0.000,     0.000,   1,1,0
     2,'99',0,   1,  11,    16.545,    15.406,     0.000,     0.000,     0.000,     0.000,   1,1,0
     3,'1 ',1,   1,  11,     6.815,     1.932,     0.000,     0.000,     0.000,     0.000,   1,1,0
     5,'1 ',1,   1,  11,     0.379,    -0.981,     0.000,     0.000,     0.000,     0.000,   1,1,0
     7,'1 ',1,   1,  11,     5.254,     3.006,     0.000,     0.000,     0.000,     0.000,   1,1,0
     8,'1 ',1,   1,  11,     1.638,     0.278,     0.000,     0.000,     0.000,     0.000,   1,1,0
     9,'1 ',1,   1,  11,    10.121,     1.986,     0.000,     0.000,     0.000,     0.000,   1,1,0
    12,'1 ',1,   1,  11,     7.525,     4.945,     0.000,     0.000,     0.000,     0.000,   1,1,0
    13,'1 ',1,   1,  11,     6.243,     1.715,     0.000,     0.000,     0.000,     0.000,   1,1,0
    15,'1 ',1,   1,  11,    10.036,     2.588,     0.000,     0.000,     0.000,     0.000,   1,1,0
    20,'1 ',1,   1,  11,     9.820,    -3.121,     0.000,     0.000,     0.000,     0.000,   1,1,0
    21,'1 ',1,   1,  11,     6.096,    -0.819,     0.000,     0.000,     0.000,     0.000,   1,1,0
    28,'1 ',1,   1,  11,    18.705,     2.225,     0.000,     0.000,     0.000,     0.000,   1,1,0
    32,'1 ',1,   1,  11,     5.385,     0.904,     0.000,     0.000,     0.000,     0.000,   1,1,0
    34,'1 ',1,   1,  11,     7.541,     6.196,     0.000,     0.000,     0.000,     0.000,   1,1,0
    36,'99',0,   1,  11,   108.412,    -4.520,     0.000,     0.000,     0.000,     0.000,   1,1,0
    37,'1 ',1,   1,  11,    -6.297,    -2.503,     0.000,     0.000,     0.000,     0.000,   1,1,0
    39,'1 ',1,   1,  11,    13.397,     5.393,     0.000,     0.000,     0.000,     0.000,   1,1,0
    43,'1 ',1,   1,  11,     1.545,     0.348,     0.000,     0.000,     0.000,     0.000,   1,1,0
    44,'1 ',1,   1,  11,     6.815,     1.731,     0.000,     0.000,     0.000,     0.000,   1,1,0
    47,'1 ',1,   1,  11,     8.120,    -1.151,     0.000,     0.000,     0.000,     0.000,   1,1,0
    49,'1 ',1,   1,  11,     7.541,     6.196,     0.000,     0.000,     0.000,     0.000,   1,1,0
    51,'1 ',1,   1,  11,     3.863,     2.318,     0.000,     0.000,     0.000,     0.000,   1,1,0
    53,'1 ',1,   1,  11,     5.393,     0.417,     0.000,     0.000,     0.000,     0.000,   1,1,0
    54,'1 ',1,   1,  11,    11.025,    -0.834,     0.000,     0.000,     0.000,     0.000,   1,1,0
    56,'1 ',1,   1,  11,     4.837,     4.473,     0.000,     0.000,     0.000,     0.000,   1,1,0
    57,'1 ',1,   1,  11,     5.540,    -0.209,     0.000,     0.000,     0.000,     0.000,   1,1,0
    58,'99',0,   1,  11,    10.106,    10.951,     0.000,     0.000,     0.000,     0.000,   1,1,0
    59,'1 ',1,   1,  11,     6.884,     4.064,     0.000,     0.000,     0.000,     0.000,   1,1,0
    61,'1 ',1,   1,  11,     2.897,    -0.355,     0.000,     0.000,     0.000,     0.000,   1,1,0
    62,'1 ',1,   1,  11,     6.019,    -0.209,     0.000,     0.000,     0.000,     0.000,   1,1,0
    63,'1 ',1,   1,  11,    22.808,     0.070,     0.000,     0.000,     0.000,     0.000,   1,1,0
    64,'1 ',1,   1,  11,     6.544,     5.802,     0.000,     0.000,     0.000,     0.000,   1,1,0
    65,'1 ',1,   1,  11,     0.703,     0.456,     0.000,     0.000,     0.000,     0.000,   1,1,0
    68,'1 ',1,   1,  11,     5.432,    -0.201,     0.000,     0.000,     0.000,     0.000,   1,1,0
    70,'1 ',1,   1,  11,     4.280,    -2.681,     0.000,     0.000,     0.000,     0.000,   1,1,0
    71,'1 ',1,   1,  11,     4.342,    -1.352,     0.000,     0.000,     0.000,     0.000,   1,1,0
    71,'2 ',1,   1,  11,     4.342,    -1.352,     0.000,     0.000,     0.000,     0.000,   1,1,0
    72,'1 ',1,   1,  11,     4.134,     0.270,     0.000,     0.000,     0.000,     0.000,   1,1,0
    74,'1 ',1,   1,  11,    -0.255,     0.270,     0.000,     0.000,     0.000,     0.000,   1,1,0
    74,'2 ',1,   1,  11,     5.385,     3.407,     0.000,     0.000,     0.000,     0.000,   1,1,0
    75,'1 ',1,   1,  11,     2.302,    -1.870,     0.000,     0.000,     0.000,     0.000,   1,1,0
    76,'1 ',1,   1,  11,     4.126,    -0.209,     0.000,     0.000,     0.000,     0.000,   1,1,0
    77,'1 ',1,   1,  11,    18.103,     0.325,     0.000,     0.000,     0.000,     0.000,   1,1,0
    78,'1 ',1,   1,  11,    10.778,     2.658,     0.000,     0.000,     0.000,     0.000,   1,1,0
    80,'1 ',1,   1,  11,     0.695,     0.417,     0.000,     0.000,     0.000,     0.000,   1,1,0
    81,'99',0,   1,  11,    30.844,    22.078,     0.000,     0.000,     0.000,     0.000,   1,1,0
    82,'1 ',1,   1,  11,     5.393,     0.417,     0.000,     0.000,     0.000,     0.000,   1,1,0
    84,'1 ',1,   1,  11,     6.691,     0.425,     0.000,     0.000,     0.000,     0.000,   1,1,0
    85,'1 ',1,   1,  11,    10.562,     2.959,     0.000,     0.000,     0.000,     0.000,   1,1,0
    88,'1 ',1,   1,  11,    -0.201,     0.008,     0.000,     0.000,     0.000,     0.000,   1,1,0
    89,'1 ',1,   1,  11,    15.105,     0.015,     0.000,     0.000,     0.000,     0.000,   1,1,0
    92,'1 ',1,   1,  11,     3.500,    -0.209,     0.000,     0.000,     0.000,     0.000,   1,1,0
    94,'1 ',1,   1,  11,     1.677,     1.939,     0.000,     0.000,     0.000,     0.000,   1,1,0
    96,'99',1,   1,   4,    17.121,    30.407,     0.000,     0.000,     0.000,     0.000,   1,1,0
    97,'99',1,   1,   4,    14.549,    19.552,     0.000,     0.000,     0.000,     0.000,   1,1,0
    99,'1 ',1,   1,   4,     5.408,    13.907,     0.000,     0.000,     0.000,     0.000,   1,1,0
   100,'1 ',1,   1,   4,     6.181,    16.225,     0.000,     0.000,     0.000,     0.000,   1,1,0
   101,'99',1,   1,   4,    79.397,    15.133,     0.000,     0.000,     0.000,     0.000,   1,1,0
   102,'99',0,   1,   4,     1.156,   -45.892,     0.000,     0.000,     0.000,     0.000,   1,1,0
   105,'1 ',1,   1,   4,     3.307,     1.221,     0.000,     0.000,     0.000,     0.000,   1,1,0
   106,'1 ',1,   1,   4,     4.234,     1.777,     0.000,     0.000,     0.000,     0.000,   1,1,0
   108,'1 ',1,   1,   4,     5.949,     1.978,     0.000,     0.000,     0.000,     0.000,   1,1,0
   108,'99',1,   1,   4,     1.595,   -12.478,     0.000,     0.000,     0.000,     0.000,   1,1,0
   109,'1 ',1,   1,   4,     6.359,     1.669,     0.000,     0.000,     0.000,     0.000,   1,1,0
   110,'1 ',1,   1,   4,     1.445,     0.618,     0.000,     0.000,     0.000,     0.000,   1,1,0
   111,'1 ',1,   1,   4,     2.581,     1.097,     0.000,     0.000,     0.000,     0.000,   1,1,0
   112,'1 ',1,   1,   4,    10.446,     3.886,     0.000,     0.000,     0.000,     0.000,   1,1,0
   115,'1 ',1,   1,   4,     3.716,     1.337,     0.000,     0.000,     0.000,     0.000,   1,1,0
   116,'1 ',1,   1,   4,    18.242,    16.302,     0.000,     0.000,     0.000,     0.000,   1,1,0
   118,'1 ',1,   1,   4,     4.219,     1.785,     0.000,     0.000,     0.000,     0.000,   1,1,0
   120,'1 ',1,   1,   4,     7.433,     2.426,     0.000,     0.000,     0.000,     0.000,   1,1,0
   121,'1 ',1,   1,   4,     0.000,     0.000,     0.000,     0.000,     0.000,     0.000,   1,1,0
   128,'1 ',1,   1,   4,     0.773,     0.294,     0.000,     0.000,     0.000,     0.000,   1,1,0
   129,'1 ',1,   1,   4,     3.469,     2.403,     0.000,     0.000,     0.000,     0.000,   1,1,0
   131,'1 ',1,   1,   4,    61.810,    30.132,     0.000,     0.000,     0.000,     0.000,   1,1,0
   132,'1 ',1,   1,   4,     4.041,     1.398,     0.000,     0.000,     0.000,     0.000,   1,1,0
   133,'1 ',1,   1,   4,     1.483,     0.464,     0.000,     0.000,     0.000,     0.000,   1,1,0
   134,'1 ',1,   1,   4,    40.949,     2.000,     0.000,     0.000,     0.000,     0.000,   1,1,0
   135,'1 ',1,   1,   4,     4.636,     1.646,     0.000,     0.000,     0.000,     0.000,   1,1,0
   136,'1 ',1,   1,   4,     2.148,     0.695,     0.000,     0.000,     0.000,     0.000,   1,1,0
   137,'1 ',1,   1,   4,     8.167,     2.712,     0.000,     0.000,     0.000,     0.000,   1,1,0
   137,'99',0,   1,   4,    28.183,   -12.764,     0.000,     0.000,     0.000,     0.000,   1,1,0
   138,'1 ',1,   1,   4,     0.332,     0.077,     0.000,     0.000,     0.000,     0.000,   1,1,0
   140,'1 ',1,   1,   4,     2.148,     1.283,     0.000,     0.000,     0.000,     0.000,   1,1,0
   141,'1 ',1,   1,   4,     4.504,     0.518,     0.000,     0.000,     0.000,     0.000,   1,1,0
   142,'1 ',1,   1,   4,     6.274,     2.132,     0.000,     0.000,     0.000,     0.000,   1,1,0
   143,'99',0,   1,   4,     0.426,     1.249,     0.000,     0.000,     0.000,     0.000,   1,1,0
   145,'99',0,   1,   4,    53.244,    16.969,     0.000,     0.000,     0.000,     0.000,   1,1,0
   146,'1 ',1,   1,   4,     1.236,     0.309,     0.000,     0.000,     0.000,     0.000,   1,1,0
   147,'1 ',1,   1,   4,     0.827,     0.379,     0.000,     0.000,     0.000,     0.000,   1,1,0
   148,'1 ',1,   1,   4,     5.045,     2.156,     0.000,     0.000,     0.000,     0.000,   1,1,0
   149,'99',0,   1,   4,     9.227,    -8.412,     0.000,     0.000,     0.000,     0.000,   1,1,0
   150,'1 ',1,   1,   4,     3.716,     1.167,     0.000,     0.000,     0.000,     0.000,   1,1,0
   151,'1 ',1,   1,   4,    14.610,    23.341,     0.000,     0.000,     0.000,     0.000,   1,1,0
   152,'1 ',1,   1,   4,     5.408,    10.817,     0.000,     0.000,     0.000,     0.000,   1,1,0
   153,'1 ',1,   1,   4,     7.023,     2.364,     0.000,     0.000,     0.000,     0.000,   1,1,0
   157,'1 ',1,   1,   4,     2.272,     0.966,     0.000,     0.000,     0.000,     0.000,   1,1,0
   159,'1 ',1,   1,   4,    11.242,     0.425,     0.000,     0.000,     0.000,     0.000,   1,1,0
   160,'1 ',1,   1,   4,     8.677,     2.055,     0.000,     0.000,     0.000,     0.000,   1,1,0
   161,'1 ',1,   1,   4,     4.929,     2.140,     0.000,     0.000,     0.000,     0.000,   1,1,0
   162,'1 ',1,   1,   4,     6.421,     2.843,     0.000,     0.000,     0.000,     0.000,   1,1,0
   163,'1 ',1,   1,   4,     0.657,     0.062,     0.000,     0.000,     0.000,     0.000,   1,1,0
   165,'1 ',1,   1,   4,     0.510,     0.301,     0.000,     0.000,     0.000,     0.000,   1,1,0
   166,'1 ',1,   1,   4,     0.409,     0.240,     0.000,     0.000,     0.000,     0.000,   1,1,0
   168,'1 ',1,   1,   4,     8.012,     2.673,     0.000,     0.000,     0.000,     0.000,   1,1,0
   169,'1 ',1,   1,   4,     1.986,     0.719,     0.000,     0.000,     0.000,     0.000,   1,1,0
   171,'1 ',1,   1,   4,     4.134,     0.587,     0.000,     0.000,     0.000,     0.000,   1,1,0
   173,'1 ',1,   1,   4,     5.609,     2.094,     0.000,     0.000,     0.000,     0.000,   1,1,0
   175,'1 ',1,   1,   4,     2.310,     0.881,     0.000,     0.000,     0.000,     0.000,   1,1,0
   176,'1 ',1,   1,   4,     4.960,     1.762,     0.000,     0.000,     0.000,     0.000,   1,1,0
   179,'1 ',1,   1,   4,     4.628,     1.592,     0.000,     0.000,     0.000,     0.000,   1,1,0
   181,'1 ',1,   1,   4,     3.508,     1.460,     0.000,     0.000,     0.000,     0.000,   1,1,0
   182,'1 ',1,   1,   4,     3.307,     1.383,     0.000,     0.000,     0.000,     0.000,   1,1,0
   184,'1 ',1,   1,   4,     2.812,     0.950,     0.000,     0.000,     0.000,     0.000,   1,1,0
   185,'1 ',1,   1,   4,     3.299,     1.198,     0.000,     0.000,     0.000,     0.000,   1,1,0
   188,'1 ',1,   1,   4,     0.579,     0.286,     0.000,     0.000,     0.000,     0.000,   1,1,0
   189,'1 ',1,   1,   4,     0.989,     0.448,     0.000,     0.000,     0.000,     0.000,   1,1,0
   191,'1 ',1,   1,   4,     3.554,     1.337,     0.000,     0.000,     0.000,     0.000,   1,1,0
   193,'1 ',1,   1,   4,     3.554,     1.259,     0.000,     0.000,     0.000,     0.000,   1,1,0
   194,'1 ',1,   1,   4,     9.418,     3.060,     0.000,     0.000,     0.000,     0.000,   1,1,0
   195,'99',0,   1,   4,    18.155,     5.789,     0.000,     0.000,     0.000,     0.000,   1,1,0
   196,'1 ',1,   1,   4,     0.000,     0.000,     0.000,     0.000,     0.000,     0.000,   1,1,0
   198,'1 ',1,   1,   4,     2.975,     1.066,     0.000,     0.000,     0.000,     0.000,   1,1,0
   200,'1 ',1,   1,   4,     4.103,     1.143,     0.000,     0.000,     0.000,     0.000,   1,1,0
   201,'1 ',1,   1,   4,     5.733,     1.553,     0.000,     0.000,     0.000,     0.000,   1,1,0
   202,'1 ',1,   1,   4,     1.661,     0.433,     0.000,     0.000,     0.000,     0.000,   1,1,0
   204,'1 ',1,   1,   4,     9.132,     3.600,     0.000,     0.000,     0.000,     0.000,   1,1,0
   205,'1 ',1,   1,   4,     8.661,     3.739,     0.000,     0.000,     0.000,     0.000,   1,1,0
   206,'1 ',1,   1,   4,     3.191,     1.313,     0.000,     0.000,     0.000,     0.000,   1,1,0
   207,'1 ',1,   1,   4,     1.986,     0.804,     0.000,     0.000,     0.000,     0.000,   1,1,0
   208,'99',1,   1,   4,    26.554,    -1.304,     0.000,     0.000,     0.000,     0.000,   1,1,0
   209,'1 ',1,   1,   4,     0.409,     0.232,     0.000,     0.000,     0.000,     0.000,   1,1,0
   213,'99',1,   1,   9,    36.904,    12.843,     0.000,     0.000,     0.000,     0.000,   1,1,0
   214,'99',1,   1,   9,   210.953,    17.126,     0.000,     0.000,     0.000,     0.000,   1,1,0
   216,'99',1,   1,   9,    59.799,    34.807,     0.000,     0.000,     0.000,     0.000,   1,1,0
   220,'99',0,   1,   9,   659.876,    -1.015,     0.000,     0.000,     0.000,     0.000,   1,1,0
   221,'1 ',1,   1,   9,    24.848,    40.231,     0.000,     0.000,     0.000,     0.000,   1,1,0
   222,'1 ',1,   1,   9,    35.819,    71.135,     0.000,     0.000,     0.000,     0.000,   1,1,0
   223,'1 ',1,   1,   9,    46.357,    92.715,     0.000,     0.000,     0.000,     0.000,   1,1,0
   224,'1 ',1,   1,   9,    46.357,    92.715,     0.000,     0.000,     0.000,     0.000,   1,1,0
   224,'99',1,   1,   9,   776.163,   127.287,     0.000,     0.000,     0.000,     0.000,   1,1,0
   225,'99',1,   1,   9,   288.994,    65.353,     0.000,     0.000,     0.000,     0.000,   1,1,0
   226,'99',1,   1,   9,    55.092,    45.395,     0.000,     0.000,     0.000,     0.000,   1,1,0
   227,'99',1,   1,   9,    52.586,   -41.986,     0.000,     0.000,     0.000,     0.000,   1,1,0
   228,'1 ',1,   1,   9,    29.978,    -2.086,     0.000,     0.000,     0.000,     0.000,   1,1,0
   229,'99',1,   1,   9,    10.851,    19.730,     0.000,     0.000,     0.000,     0.000,   1,1,0
   231,'99',1,   1,   9,   115.964,    42.960,     0.000,     0.000,     0.000,     0.000,   1,1,0
   234,'99',1,   1,   9,     5.744,    29.669,     0.000,     0.000,     0.000,     0.000,   1,1,0
   235,'99',1,   1,   9,    38.265,    31.220,     0.000,     0.000,     0.000,     0.000,   1,1,0
   236,'1 ',1,   1,   9,     5.949,    15.452,     0.000,     0.000,     0.000,     0.000,   1,1,0
   236,'99',1,   1,   9,   240.121,    -9.884,     0.000,     0.000,     0.000,     0.000,   1,1,0
   237,'1 ',1,   1,   9,     2.975,     0.773,     0.000,     0.000,     0.000,     0.000,   1,1,0
   238,'1 ',1,   1,   9,     1.754,     0.858,     0.000,     0.000,     0.000,     0.000,   1,1,0
   239,'1 ',1,   1,   9,     1.221,     0.309,     0.000,     0.000,     0.000,     0.000,   1,1,0
   240,'1 ',1,   1,   9,     3.430,     0.850,     0.000,     0.000,     0.000,     0.000,   1,1,0
   241,'1 ',1,   1,   9,     3.585,     0.309,     0.000,     0.000,     0.000,     0.000,   1,1,0
   241,'99',1,   1,   9,     2.751,    -0.215,     0.000,     0.000,     0.000,     0.000,   1,1,0
   242,'1 ',1,   1,   9,    10.732,     5.996,     0.000,     0.000,     0.000,     0.000,   1,1,0
   243,'1 ',1,   1,   9,    15.082,     8.677,     0.000,     0.000,     0.000,     0.000,   1,1,0
   245,'99',1,   1,   9,    61.789,     7.098,     0.000,     0.000,     0.000,     0.000,   1,1,0
   246,'1 ',1,   1,   9,    15.452,    30.905,     0.000,     0.000,     0.000,     0.000,   1,1,0
   247,'1 ',1,   1,   9,    15.785,    15.931,     0.000,     0.000,     0.000,     0.000,   1,1,0
   248,'1 ',1,   1,   9,    28.201,     9.279,     0.000,     0.000,     0.000,     0.000,   1,1,0
   249,'99',1,   1,   9,    64.186,     8.370,     0.000,     0.000,     0.000,     0.000,   1,1,0
   250,'1 ',1,   1,   9,     0.116,     0.518,     0.000,     0.000,     0.000,     0.000,   1,1,0
   251,'1 ',1,   1,   9,    14.309,     9.465,     0.000,     0.000,     0.000,     0.000,   1,1,0
   252,'1 ',1,   1,   9,    10.886,     4.736,     0.000,     0.000,     0.000,     0.000,   1,1,0
   253,'1 ',1,   1,   9,     6.706,     0.773,     0.000,     0.000,     0.000,     0.000,   1,1,0
   253,'99',1,   1,   9,     6.111,    -4.036,     0.000,     0.000,     0.000,     0.000,   1,1,0
   254,'99',1,   1,   9,    54.297,    15.831,     0.000,     0.000,     0.000,     0.000,   1,1,0
   256,'1 ',1,   1,   9,     4.342,     0.927,     0.000,     0.000,     0.000,     0.000,   1,1,0
   257,'1 ',1,   1,   9,     4.342,     1.004,     0.000,     0.000,     0.000,     0.000,   1,1,0
   257,'99',1,   1,   9,    17.239,    11.038,     0.000,     0.000,     0.000,     0.000,   1,1,0
   258,'1 ',1,   1,   9,     2.743,     0.232,     0.000,     0.000,     0.000,     0.000,   1,1,0
   259,'1 ',1,   1,   9,     1.831,     0.464,     0.000,     0.000,     0.000,     0.000,   1,1,0
   260,'1 ',1,   1,   9,     2.743,     0.464,     0.000,     0.000,     0.000,     0.000,   1,1,0
   261,'1 ',1,   1,   9,     1.599,     0.309,     0.000,     0.000,     0.000,     0.000,   1,1,0
   262,'99',1,   1,   9,     1.982,    -6.556,     0.000,     0.000,     0.000,     0.000,   1,1,0
   263,'1 ',1,   1,   9,     0.912,     0.232,     0.000,     0.000,     0.000,     0.000,   1,1,0
   264,'1 ',1,   1,   9,     0.309,     0.077,     0.000,     0.000,     0.000,     0.000,   1,1,0
   266,'1 ',1,   1,   5,     2.295,     2.550,     0.000,     0.000,     0.000,     0.000,   1,1,0
   267,'1 ',1,   1,   5,    11.350,     5.401,     0.000,     0.000,     0.000,     0.000,   1,1,0
   269,'1 ',1,   1,   5,    -6.629,     1.174,     0.000,     0.000,     0.000,     0.000,   1,1,0
   270,'1 ',1,   1,   5,     4.937,     2.333,     0.000,     0.000,     0.000,     0.000,   1,1,0
   272,'1 ',1,   1,   5,    23.696,     4.489,     0.000,     0.000,     0.000,     0.000,   1,1,0
   273,'1 ',1,   1,   5,     2.905,     2.132,     0.000,     0.000,     0.000,     0.000,   1,1,0
   274,'1 ',1,   1,   5,    11.999,     3.222,     0.000,     0.000,     0.000,     0.000,   1,1,0
   277,'99',1,   1,   5,   124.742,    61.063,     0.000,     0.000,     0.000,     0.000,   1,1,0
   279,'1 ',1,   1,   5,     5.710,     2.380,     0.000,     0.000,     0.000,     0.000,   1,1,0
   281,'1 ',1,   1,   5,     1.576,     2.333,     0.000,     0.000,     0.000,     0.000,   1,1,0
   284,'1 ',1,   1,   5,     4.597,     1.491,     0.000,     0.000,     0.000,     0.000,   1,1,0
   284,'99',1,   1,   5,     5.129,     4.275,     0.000,     0.000,     0.000,     0.000,   1,1,0
   285,'1 ',1,   1,   5,     1.661,     1.538,     0.000,     0.000,     0.000,     0.000,   1,1,0
   286,'1 ',1,   1,   5,     1.097,     2.187,     0.000,     0.000,     0.000,     0.000,   1,1,0
   287,'1 ',1,   1,   5,     1.051,     2.047,     0.000,     0.000,     0.000,     0.000,   1,1,0
   289,'1 ',1,   1,   5,     4.651,     2.503,     0.000,     0.000,     0.000,     0.000,   1,1,0
   289,'99',1,   1,   5,     1.644,    -2.156,     0.000,     0.000,     0.000,     0.000,   1,1,0
...
0 / END OF LOAD DATA, BEGIN FIXED SHUNT DATA
     2,'1 ',1,     0.000,    15.498
    23,'1 ',1,     0.000,  -120.310
    36,'1 ',1,     0.000,    -4.438
    58,'1 ',1,     0.000,    10.592
    81,'1 ',1,     0.000,    21.502
    98,'1 ',1,     0.000,   -24.285
   100,'1 ',1,     0.000,     4.571
   102,'1 ',1,     0.000,   -43.607
   133,'1 ',1,     0.000,    -1.321
   137,'1 ',1,     0.000,   -13.204
   143,'1 ',1,     0.000,     1.197
   145,'1 ',1,     0.000,    16.360
   149,'1 ',1,     0.000,    -8.091
   156,'1 ',1,     0.000,    40.892
   195,'1 ',1,     0.000,     5.562
   220,'1 ',1,     0.000,    -1.094
   304,'1 ',1,     0.000,     2.218
   348,'1 ',1,     0.000,     5.534
   357,'1 ',1,     0.000,   -30.025
   363,'1 ',1,     0.000,    24.399
   364,'1 ',1,     0.000,   -71.188
   367,'1 ',1,     0.000,    60.608
   376,'1 ',1,     0.000,    -9.534
   380,'1 ',1,     0.000,    11.017
   386,'1 ',1,     0.000,    -5.842
   390,'1 ',1,     0.000,    12.518
   428,'1 ',1,     0.000,    -7.317
   442,'1 ',1,     0.000,    -7.663
   443,'1 ',1,     0.000,    12.284
   444,'1 ',1,     0.000,    19.281
   460,'1 ',1,     0.000,    32.216
   525,'1 ',1,     0.000,   100.748
   576,'1 ',1,     0.000,   -63.285
   591,'1 ',1,     0.000,    22.609
   595,'1 ',1,     0.000,     6.261
   623,'1 ',1,     0.000,    -2.498
   624,'1 ',1,     0.000,     6.887
   631,'1 ',1,     0.000,    30.406
   639,'1 ',1,     0.000,   -66.624
   640,'1 ',1,     0.000,   -75.050
   642,'1 ',1,     0.000,    88.396
   653,'1 ',1,     0.000,    26.664
   684,'1 ',1,     0.000,     0.059
   696,'1 ',1,     0.000,    -1.903
   697,'1 ',1,     0.000,   -37.362
   743,'1 ',1,     0.000,    -1.150
   748,'1 ',1,     0.000,   -19.101
   791,'1 ',1,     0.000,     0.336
   794,'1 ',1,     0.000,    -2.220
0 / END OF FIXED SHUNT DATA, BEGIN GENERATOR DATA
     6,'1 ',     0.000,     0.000,    33.333,   -33.333,0.95340,     0,   100.000, 0.00000E+0, 1.00000E+0, 0.00000E+0, 0.00000E+0,1.00000,0,  100.0,    63.000,    28.500,   1,1.0000,0,1,0,1,0,1,0,1
    23,'98',     5.515,   -69.275,   300.000,  -300.000,1.01000,     0,   100.000, 0.00000E+0, 1.00000E+0, 0.00000E+0, 0.00000E+0,1.00000,1,  100.0,    60.873,     0.000,   1,1.0000,0,1,0,1,0,1,0,1
    25,'1 ',     0.000,     0.000,    22.500,   -22.500,0.95340,     0,    67.500, 0.00000E+0, 1.65000E-1, 0.00000E+0, 0.00000E+0,1.00000,0,  100.0,   280.000,     0.000,   1,1.0000,0,1,0,1,0,1,0,1
    25,'2 ',     0.000,     0.000,    22.500,   -22.500,0.95340,     0,    67.500, 0.00000E+0, 1.65000E-1, 0.00000E+0, 0.00000E+0,1.00000,0,  100.0,    60.430,    14.250,   1,1.0000,0,1,0,1,0,1,0,1
    31,'99',    77.385,    12.313,   600.000,  -600.000,1.00990,     0,   100.000, 0.00000E+0, 1.00000E+0, 0.00000E+0, 0.00000E+0,1.00000,1,  100.0,   161.545,     0.000,   1,1.0000,0,1,0,1,0,1,0,1
    33,'1 ',     0.000,     0.000,    19.290,   -19.290,1.00870,    36,    57.870, 0.00000E+0, 1.48000E-1, 4.70000E-3, 9.39000E-2,1.00000,0,  100.0,    46.200,    11.400,   1,1.0000,0,1,0,1,0,1,0,1
    35,'1 ',     0.000,     0.000,    33.127,   -33.127,1.01010,     0,    99.380, 0.00000E+0, 1.78000E-1, 4.50000E-3, 9.28000E-2,1.00000,0,  100.0,   288.000,     0.000,   1,1.0000,0,1,0,1,0,1,0,1
    35,'2 ',     0.000,     0.000,    23.050,   -23.050,1.01010,     0,    69.150, 0.00000E+0, 1.35000E-1, 2.00000E-3, 5.85000E-2,1.00000,0,  100.0,   300.000,     0.000,   1,1.0000,0,1,0,1,0,1,0,1
    35,'3 ',     0.000,     0.000,    16.237,   -16.237,1.01010,     0,    48.710, 0.00000E+0, 1.93000E-1, 1.60000E-3, 5.41000E-2,1.00000,0,  100.0,    40.140,    25.140,   1,1.0000,0,1,0,1,0,1,0,1
    43,'99',     2.519,    -4.604,   600.000,  -600.000,1.01310,     0,   100.000, 0.00000E+0, 1.00000E+0, 0.00000E+0, 0.00000E+0,1.00000,1,  100.0,   357.500,     0.000,   1,1.0000,0,1,0,1,0,1,0,1
    45,'1 ',     0.000,     0.000,    67.750,   -67.750,1.00870,    36,   203.250, 0.00000E+0, 2.26000E-1, 9.40000E-3, 1.87600E-1,1.00000,0,  100.0,   173.250,    50.540,   1,1.0000,0,1,0,1,0,1,0,1
    46,'99',    25.694,   -10.251,   600.000,  -600.000,1.00480,     0,   100.000, 0.00000E+0, 1.00000E+0, 0.00000E+0, 0.00000E+0,1.00000,1,  100.0,    66.162,     0.000,   1,1.0000,0,1,0,1,0,1,0,1
    47,'99',    34.072,   -12.417,   600.000,  -600.000,1.01310,     0,   100.000, 0.00000E+0, 1.00000E+0, 0.00000E+0, 0.00000E+0,1.00000,1,  100.0,    81.621,     0.000,   1,1.0000,0,1,0,1,0,1,0,1
    52,'99',    61.734,   -47.942,   600.000,  -600.000,1.00510,     0,   100.000, 0.00000E+0, 1.00000E+0, 0.00000E+0, 0.00000E+0,1.00000,1,  100.0,   132.664,     0.000,   1,1.0000,0,1,0,1,0,1,0,1
    55,'99',    77.361,   -14.597,   600.000,  -600.000,1.01080,     0,   100.000, 0.00000E+0, 1.00000E+0, 0.00000E+0, 0.00000E+0,1.00000,1,  100.0,   161.500,     0.000,   1,1.0000,0,1,0,1,0,1,0,1
    59,'1 ',     3.833,   254.700,   254.700,  -254.700,1.04000,     0,   100.000, 0.00000E+0, 1.00000E+0, 0.00000E+0, 0.00000E+0,1.00000,1,  100.0,   353.750,     3.833,   1,1.0000,0,1,0,1,0,1,0,1
    65,'1 ',     7.393,     2.181,   226.800,  -226.800,1.01660,    16,    27.800, 0.00000E+0, 3.20000E-1, 0.00000E+0, 0.00000E+0,1.00000,1,  100.0,   315.000,     7.393,   1,1.0000,0,1,0,1,0,1,0,1
    65,'2 ',     0.000,     0.000,     9.267,    -9.267,1.01660,    16,    27.800, 0.00000E+0, 3.20000E-1, 0.00000E+0, 0.00000E+0,1.00000,0,  100.0,    25.200,     4.750,   1,1.0000,0,1,0,1,0,1,0,1
    71,'99',    33.538,   -11.344,   600.000,  -600.000,1.01590,     0,   100.000, 0.00000E+0, 1.00000E+0, 0.00000E+0, 0.00000E+0,1.00000,1,  100.0,    80.636,     0.000,   1,1.0000,0,1,0,1,0,1,0,1
    80,'1 ',     0.000,     0.000,     9.267,    -9.267,1.01660,    16,    27.800, 0.00000E+0, 3.20000E-1, 0.00000E+0, 0.00000E+0,1.00000,0,  100.0,    26.250,     4.750,   1,1.0000,0,1,0,1,0,1,0,1
    80,'2 ',     0.000,     0.000,     9.267,    -9.267,1.01660,    16,    27.800, 0.00000E+0, 3.20000E-1, 0.00000E+0, 0.00000E+0,1.00000,0,  100.0,    25.200,     1.900,   1,1.0000,0,1,0,1,0,1,0,1
    86,'99',    43.503,    -1.643,   600.000,  -600.000,1.01070,     0,   100.000, 0.00000E+0, 1.00000E+0, 0.00000E+0, 0.00000E+0,1.00000,1,  100.0,    99.024,     0.000,   1,1.0000,0,1,0,1,0,1,0,1
    87,'1 ',     0.000,     0.000,   234.900,  -234.900,1.00510,     0,   100.000, 0.00000E+0, 1.00000E+0, 0.00000E+0, 0.00000E+0,1.00000,0,  100.0,   326.250,     0.000,   1,1.0000,0,1,0,1,0,1,0,1
    90,'99',    28.193,    14.478,   600.000,  -600.000,1.00780,     0,   100.000, 0.00000E+0, 1.00000E+0, 0.00000E+0, 0.00000E+0,1.00000,1,  100.0,    70.774,     0.000,   1,1.0000,0,1,0,1,0,1,0,1
    93,'99',     6.615,   -63.430,   600.000,  -600.000,1.01610,     0,   100.000, 0.00000E+0, 1.00000E+0, 0.00000E+0, 0.00000E+0,1.00000,1,  100.0,   315.000,     0.000,   1,1.0000,0,1,0,1,0,1,0,1
    98,'99',    50.268,   -25.234,    33.333,   -33.333,1.01935,     0,   100.000, 0.00000E+0, 1.00000E+0, 0.00000E+0, 0.00000E+0,1.00000,0,  100.0,    65.268,    50.268,   1,1.0000,0,1,0,1,0,1,0,1
    99,'1 ',     0.000,     0.000,   129.375,  -129.375,1.02455,     0,   163.450, 0.00000E+0, 1.80000E-1, 0.00000E+0, 0.00000E+0,1.00000,0,  100.0,   179.688,    70.000,   1,1.0000,0,1,0,1,0,1,0,1
   100,'1 ',     0.000,     0.000,   129.375,  -129.375,1.02455,     0,   148.190, 0.00000E+0, 1.80000E-1, 0.00000E+0, 0.00000E+0,1.00000,0,  100.0,   179.688,    70.000,   1,1.0000,0,1,0,1,0,1,0,1
   100,'99',    13.104,     4.798,    33.333,   -33.333,1.02455,     0,   100.000, 0.00000E+0, 1.00000E+0, 0.00000E+0, 0.00000E+0,1.00000,0,  100.0,    28.104,    13.104,   1,1.0000,0,1,0,1,0,1,0,1
   116,'1 ',     0.000,     0.000,   123.750,  -123.750,1.02455,     0,   147.700, 0.00000E+0, 1.80000E-1, 0.00000E+0, 0.00000E+0,1.00000,0,  100.0,   171.875,    32.000,   1,1.0000,0,1,0,1,0,1,0,1
   117,'1 ',     0.000,     0.000,    37.667,   -37.667,1.02455,     0,   113.000, 0.00000E+0, 1.80000E-1, 0.00000E+0, 0.00000E+0,1.00000,0,  100.0,   113.000,    32.000,   1,1.0000,0,1,0,1,0,1,0,1
   121,'1 ',     0.000,     0.000,    45.000,   -45.000,1.02455,     0,   135.000, 0.00000E+0, 1.80000E-1, 0.00000E+0, 0.00000E+0,1.00000,0,  100.0,   135.000,    35.000,   1,1.0000,0,1,0,1,0,1,0,1
   131,'1 ',     0.000,     0.000,     8.333,    -8.333,1.02182,     0,    25.000, 0.00000E+0, 2.00000E-1, 0.00000E+0, 0.00000E+0,1.00000,0,  100.0,    25.000,    10.000,   1,1.0000,0,1,0,1,0,1,0,1
   131,'2 ',     0.000,     0.000,     8.333,    -8.333,1.02182,     0,    25.000, 0.00000E+0, 2.00000E-1, 0.00000E+0, 0.00000E+0,1.00000,0,  100.0,    25.000,    10.000,   1,1.0000,0,1,0,1,0,1,0,1
   131,'3 ',     0.000,     0.000,   195.000,  -172.000,1.02182,     0,    30.000, 0.00000E+0, 2.00000E-1, 0.00000E+0, 0.00000E+0,1.00000,0,  100.0,    39.062,    10.000,   1,1.0000,0,1,0,1,0,1,0,1
   131,'4 ',     0.000,     0.000,   177.000,  -168.000,1.02182,     0,    25.000, 0.00000E+0, 2.00000E-1, 0.00000E+0, 0.00000E+0,1.00000,0,  100.0,    31.250,    10.000,   1,1.0000,0,1,0,1,0,1,0,1
   133,'99',     2.396,    -1.381,    33.333,   -33.333,1.02260,     0,   100.000, 0.00000E+0, 1.00000E+0, 0.00000E+0, 0.00000E+0,1.00000,0,  100.0,   295.000,     2.396,   1,1.0000,0,1,0,1,0,1,0,1
   134,'1 ',     0.000,     0.000,    16.667,   -16.667,1.02455,     0,    50.000, 0.00000E+0, 2.00000E-1, 0.00000E+0, 0.00000E+0,1.00000,0,  100.0,    50.000,    10.000,   1,1.0000,0,1,0,1,0,1,0,1
   151,'1 ',     0.000,     0.000,   108.000,  -108.000,1.02455,     0,   120.000, 0.00000E+0, 1.80000E-1, 0.00000E+0, 0.00000E+0,1.00000,0,  100.0,   150.000,    70.000,   1,1.0000,0,1,0,1,0,1,0,1
   151,'2 ',   120.000,   108.000,   108.000,  -108.000,1.02455,     0,   120.000, 0.00000E+0, 1.80000E-1, 0.00000E+0, 0.00000E+0,1.00000,1,  100.0,   150.000,    58.333,   1,1.0000,0,1,0,1,0,1,0,1
   152,'1 ',   149.993,    93.139,   134.994,  -134.994,1.02455,     0,   144.000, 0.00000E+0, 1.80000E-1, 0.00000E+0, 0.00000E+0,1.00000,1,  100.0,   187.491,    79.000,   1,1.0000,0,1,0,1,0,1,0,1
   152,'2 ',     0.000,     0.000,    36.667,   -36.667,1.02455,     0,   110.000, 0.00000E+0, 1.80000E-1, 0.00000E+0, 0.00000E+0,1.00000,0,  100.0,   110.000,    79.000,   1,1.0000,0,1,0,1,0,1,0,1
   156,'99',    47.466,    43.051,    33.333,   -33.333,1.02608,     0,   100.000, 0.00000E+0, 1.00000E+0, 0.00000E+0, 0.00000E+0,1.00000,0,  100.0,    62.466,    47.466,   1,1.0000,0,1,0,1,0,1,0,1
   159,'99',     0.083,    68.338,   600.000,  -600.000,1.01930,     0,   100.000, 0.00000E+0, 1.00000E+0, 0.00000E+0, 0.00000E+0,1.00000,1,  100.0,   366.250,     0.000,   1,1.0000,0,1,0,1,0,1,0,1
   190,'99',    40.457,    88.962,   600.000,  -600.000,1.03300,     0,   100.000, 0.00000E+0, 1.00000E+0, 0.00000E+0, 0.00000E+0,1.00000,1,  100.0,    99.579,     0.000,   1,1.0000,0,1,0,1,0,1,0,1
   221,'1 ',     0.000,     0.000,   123.333,  -123.333,1.02864,     0,   370.000, 0.00000E+0, 2.10000E-1, 0.00000E+0, 0.00000E+0,1.00000,0,  100.0,   370.000,   240.000,   1,1.0000,0,1,0,1,0,1,0,1
   221,'2 ',     0.000,     0.000,   123.333,  -123.333,1.02864,     0,   370.000, 0.00000E+0, 2.10000E-1, 0.00000E+0, 0.00000E+0,1.00000,0,  100.0,   370.000,   240.000,   1,1.0000,0,1,0,1,0,1,0,1
   221,'3 ',     0.000,     0.000,   388.125,  -388.125,1.02864,     0,   449.450, 0.00000E+0, 2.10000E-1, 0.00000E+0, 0.00000E+0,1.00000,0,  100.0,   539.062,   240.000,   1,1.0000,0,1,0,1,0,1,0,1
   222,'1 ',   462.500,   176.577,   416.250,  -416.250,1.02864,     0,   455.560, 0.00000E+0, 2.10000E-1, 0.00000E+0, 0.00000E+0,1.00000,1,  100.0,   578.125,   240.000,   1,1.0000,0,1,0,1,0,1,0,1
   222,'2 ',     0.000,     0.000,   333.000,  -333.000,1.02864,     0,   397.310, 0.00000E+0, 2.10000E-1, 0.00000E+0, 0.00000E+0,1.00000,0,  100.0,   462.500,   240.000,   1,1.0000,0,1,0,1,0,1,0,1
   223,'1 ',   414.571,   -17.114,   981.927,  -981.927,1.01200,     0,   616.840, 0.00000E+0, 2.35000E-1, 0.00000E+0, 0.00000E+0,1.00000,1,  100.0,  1363.788,   350.876,   1,1.0000,0,1,0,1,0,1,0,1
   223,'2 ',   414.571,   -17.114,   981.927,  -981.927,1.01200,     0,   616.840, 0.00000E+0, 2.35000E-1, 0.00000E+0, 0.00000E+0,1.00000,1,  100.0,  1363.788,   350.876,   1,1.0000,0,1,0,1,0,1,0,1
   223,'3 ',   414.571,   -17.114,   981.927,  -981.927,1.01200,     0,   616.840, 0.00000E+0, 2.35000E-1, 0.00000E+0, 0.00000E+0,1.00000,1,  100.0,  1363.788,   350.876,   1,1.0000,0,1,0,1,0,1,0,1
   224,'1 ',     0.000,     0.000,   416.250,  -416.250,1.01200,     0,   451.840, 0.00000E+0, 2.10000E-1, 0.00000E+0, 0.00000E+0,1.00000,0,  100.0,   578.125,   240.000,   1,1.0000,0,1,0,1,0,1,0,1
   224,'2 ',   425.000,   121.203,   382.500,  -382.500,1.01200,     0,   416.510, 0.00000E+0, 2.10000E-1, 0.00000E+0, 0.00000E+0,1.00000,1,  100.0,   531.250,   240.000,   1,1.0000,0,1,0,1,0,1,0,1
   224,'3 ',   425.000,   121.203,   382.500,  -382.500,1.01200,     0,   416.510, 0.00000E+0, 2.10000E-1, 0.00000E+0, 0.00000E+0,1.00000,1,  100.0,   531.250,   240.000,   1,1.0000,0,1,0,1,0,1,0,1
   233,'99',    96.161,   -11.425,   600.000,  -600.000,1.00410,     0,   100.000, 0.00000E+0, 1.00000E+0, 0.00000E+0, 0.00000E+0,1.00000,1,  100.0,   221.800,     0.000,   1,1.0000,0,1,0,1,0,1,0,1
   236,'1 ',     0.000,     0.000,   123.750,  -123.750,1.02045,     0,   166.810, 0.00000E+0, 1.80000E-1, 0.00000E+0, 0.00000E+0,1.00000,0,  100.0,   171.875,    91.667,   1,1.0000,0,1,0,1,0,1,0,1
   236,'98',     0.000,   102.602,   371.000,  -371.000,1.02045,     0,   120.000, 0.00000E+0, 1.80000E-1, 0.00000E+0, 0.00000E+0,1.00000,1,  100.0,   150.000,     0.000,   1,1.0000,0,1,0,1,0,1,0,1
   246,'1 ',   437.500,    78.412,   393.750,  -393.750,1.01364,     0,   477.900, 0.00000E+0, 2.10000E-1, 0.00000E+0, 0.00000E+0,1.00000,1,  100.0,   546.875,   240.000,   1,1.0000,0,1,0,1,0,1,0,1
   250,'1 ',     0.000,     0.000,   190.000,  -179.000,1.02182,     0,    30.000, 0.00000E+0, 2.00000E-1, 0.00000E+0, 0.00000E+0,1.00000,0,  100.0,    37.500,     0.000,   1,1.0000,0,1,0,1,0,1,0,1
   256,'1 ',   119.701,     5.432,   228.600,  -228.600,1.02455,     0,     0.430, 0.00000E+0, 2.00000E-1, 0.00000E+0, 0.00000E+0,1.00000,1,  100.0,   317.500,     0.000,   1,1.0000,0,1,0,1,0,1,0,1
   267,'99',     5.858,    10.807,   600.000,  -600.000,1.01000,     0,   100.000, 0.00000E+0, 1.00000E+0, 0.00000E+0, 0.00000E+0,1.00000,1,  100.0,   367.500,     0.000,   1,1.0000,0,1,0,1,0,1,0,1
   268,'99',   217.424,   164.523,   600.000,  -600.000,1.01800,     0,   100.000, 0.00000E+0, 1.00000E+0, 0.00000E+0, 0.00000E+0,1.00000,1,  100.0,   501.500,     0.000,   1,1.0000,0,1,0,1,0,1,0,1
   272,'99',    34.039,    36.648,   600.000,  -600.000,1.01940,     0,   100.000, 0.00000E+0, 1.00000E+0, 0.00000E+0, 0.00000E+0,1.00000,1,  100.0,    93.094,     0.000,   1,1.0000,0,1,0,1,0,1,0,1
   275,'99',     3.260,   -50.881,   600.000,  -600.000,1.01850,     0,   100.000, 0.00000E+0, 1.00000E+0, 0.00000E+0, 0.00000E+0,1.00000,1,  100.0,    91.321,     0.000,   1,1.0000,0,1,0,1,0,1,0,1
   281,'99',     3.975,     1.646,   600.000,  -600.000,1.01020,     0,   100.000, 0.00000E+0, 1.00000E+0, 0.00000E+0, 0.00000E+0,1.00000,1,  100.0,   340.000,     0.000,   1,1.0000,0,1,0,1,0,1,0,1
   293,'1 ',     0.000,     0.000,    76.667,   -76.667,1.02590,   322,   230.000, 2.30000E-3, 1.68000E-1, 0.00000E+0, 0.00000E+0,1.02500,0,  100.0,   173.250,   117.800,   1,1.0000,0,1,0,1,0,1,0,1
   296,'1 ',     0.000,     0.000,    76.667,   -76.667,1.02590,   322,   230.000, 2.30000E-3, 1.68000E-1, 0.00000E+0, 0.00000E+0,1.02500,0,  100.0,   173.250,   117.800,   1,1.0000,0,1,0,1,0,1,0,1
   298,'99',     8.883,     7.721,   600.000,  -600.000,1.02780,     0,   100.000, 0.00000E+0, 1.00000E+0, 0.00000E+0, 0.00000E+0,1.00000,1,  100.0,    35.141,     0.000,   1,1.0000,0,1,0,1,0,1,0,1
   304,'99',    29.434,     2.277,    33.333,   -33.333,1.01312,     0,   100.000, 0.00000E+0, 1.00000E+0, 0.00000E+0, 0.00000E+0,1.00000,0,  100.0,    44.434,    29.434,   1,1.0000,0,1,0,1,0,1,0,1
   305,'1 ',     0.000,     0.000,    76.667,   -76.667,1.02590,   265,   230.000, 2.20000E-3, 1.72800E-1, 0.00000E+0, 0.00000E+0,1.02500,0,  100.0,   173.250,   117.800,   1,1.0000,0,1,0,1,0,1,0,1
   307,'99',    14.823,     4.001,   600.000,  -600.000,1.00640,     0,   100.000, 0.00000E+0, 1.00000E+0, 0.00000E+0, 0.00000E+0,1.00000,1,  100.0,    46.103,     0.000,   1,1.0000,0,1,0,1,0,1,0,1
   309,'1 ',     0.000,     0.000,   444.271,  -444.271,1.01000,   308,   300.000, 0.00000E+0, 2.07000E-1, 0.00000E+0, 0.00000E+0,1.00000,0,  100.0,   617.042,   198.808,   1,1.0000,0,1,0,1,0,1,0,1
   326,'1 ',     0.000,     0.000,    76.667,   -76.667,1.02590,   265,   230.000, 2.20000E-3, 1.72800E-1, 0.00000E+0, 0.00000E+0,1.02500,0,  100.0,   173.250,   117.800,   1,1.0000,0,1,0,1,0,1,0,1
   335,'1 ',     0.000,     0.000,    76.667,   -76.667,1.02590,   265,   230.000, 2.20000E-3, 1.72800E-1, 0.00000E+0, 0.00000E+0,1.02500,0,  100.0,   173.250,   117.800,   1,1.0000,0,1,0,1,0,1,0,1
   337,'99',     4.255,     3.998,   600.000,  -600.000,1.01000,     0,   100.000, 0.00000E+0, 1.00000E+0, 0.00000E+0, 0.00000E+0,1.00000,1,  100.0,   323.750,     0.000,   1,1.0000,0,1,0,1,0,1,0,1
   342,'1 ',     0.000,     0.000,   245.700,  -245.700,1.03000,     0,   100.000, 0.00000E+0, 1.00000E+0, 0.00000E+0, 0.00000E+0,1.00000,0,  100.0,   341.250,     0.000,   1,1.0000,0,1,0,1,0,1,0,1
   345,'99',     8.319,     6.512,   600.000,  -600.000,1.02780,     0,   100.000, 0.00000E+0, 1.00000E+0, 0.00000E+0, 0.00000E+0,1.00000,1,  100.0,    34.101,     0.000,   1,1.0000,0,1,0,1,0,1,0,1
   350,'99',    76.174,    -8.641,   600.000,  -600.000,1.00180,     0,   100.000, 0.00000E+0, 1.00000E+0, 0.00000E+0, 0.00000E+0,1.00000,1,  100.0,   159.310,     0.000,   1,1.0000,0,1,0,1,0,1,0,1
   352,'1 ',     0.000,     0.000,   302.333,  -302.333,1.02590,   277,   907.000, 3.80000E-3, 2.20000E-1, 0.00000E+0, 0.00000E+0,1.00000,0,  100.0,   254.000,     0.000,   1,1.0000,0,1,0,1,0,1,0,1
   353,'99',    56.986,  -128.173,   600.000,  -600.000,1.00630,     0,   100.000, 0.00000E+0, 1.00000E+0, 0.00000E+0, 0.00000E+0,1.00000,1,  100.0,   147.834,     0.000,   1,1.0000,0,1,0,1,0,1,0,1
   357,'99',   122.965,   -29.975,    33.333,   -33.333,1.01000,     0,   100.000, 0.00000E+0, 1.00000E+0, 0.00000E+0, 0.00000E+0,1.00000,0,  100.0,   137.965,   122.965,   1,1.0000,0,1,0,1,0,1,0,1
   361,'99',   287.890,  -148.775,   600.000,  -600.000,1.01000,     0,   100.000, 0.00000E+0, 1.00000E+0, 0.00000E+0, 0.00000E+0,1.00000,1,  100.0,   625.135,     0.000,   1,1.0000,0,1,0,1,0,1,0,1
   364,'99',    27.029,   -71.598,    33.333,   -33.333,1.00286,     0,   100.000, 0.00000E+0, 1.00000E+0, 0.00000E+0, 0.00000E+0,1.00000,0,  100.0,    42.029,    27.029,   1,1.0000,0,1,0,1,0,1,0,1
   370,'1 ',     0.000,     0.000,   228.552,  -228.552,1.01125,     0,   216.550, 0.00000E+0, 1.80000E-1, 0.00000E+0, 0.00000E+0,1.00000,0,  100.0,   317.434,    99.538,   1,1.0000,0,1,0,1,0,1,0,1
   370,'2 ',     0.000,     0.000,   228.552,  -228.552,1.01125,     0,   179.000, 0.00000E+0, 1.80000E-1, 0.00000E+0, 0.00000E+0,1.00000,0,  100.0,   317.434,    99.538,   1,1.0000,0,1,0,1,0,1,0,1
   370,'3 ',     0.000,     0.000,   228.552,  -228.552,1.01125,     0,   179.000, 0.00000E+0, 1.80000E-1, 0.00000E+0, 0.00000E+0,1.00000,0,  100.0,   317.434,    99.538,   1,1.0000,0,1,0,1,0,1,0,1
   371,'1 ',     0.000,     0.000,   161.100,  -161.100,1.01125,     0,   179.000, 0.00000E+0, 1.80000E-1, 0.00000E+0, 0.00000E+0,1.00000,0,  100.0,   223.750,  -200.000,   1,1.0000,0,1,0,1,0,1,0,1
   373,'1 ',     0.000,     0.000,    49.500,  -185.000,1.01909,     0,    58.990, 0.00000E+0, 2.00000E-1, 0.00000E+0, 0.00000E+0,1.00000,0,  100.0,    68.750,    26.000,   1,1.0000,0,1,0,1,0,1,0,1
   374,'1 ',     0.000,     0.000,    18.333,   -18.333,1.01909,     0,    55.000, 0.00000E+0, 2.00000E-1, 0.00000E+0, 0.00000E+0,1.00000,0,  100.0,    55.000,    26.000,   1,1.0000,0,1,0,1,0,1,0,1
   375,'1 ',     0.000,     0.000,   264.600,  -264.600,1.02182,     0,     0.360, 0.00000E+0, 2.00000E-1, 0.00000E+0, 0.00000E+0,1.00000,0,  100.0,   367.500,     0.000,   1,1.0000,0,1,0,1,0,1,0,1
   376,'1 ',     0.000,     0.000,   193.000,  -169.000,1.02727,     0,    26.000, 0.00000E+0, 2.00000E-1, 0.00000E+0, 0.00000E+0,1.00000,0,  100.0,    32.500,     0.000,   1,1.0000,0,1,0,1,0,1,0,1
...